---- qbsp / TyrUtils v0.15 ----
Input file: test.map
Output file: test.bsp

---- LoadMapFile ----
*** WARNING 06: No info_player_deathmatch entities in level
           36 faces
            6 brushes
            4 entities
            1 unique texnames
            9 texinfo

Opened WAD: D:/Users/Darran/DesktopShadow/C/Quake/Tools/Trenchbroom/Q.wad
Processing hull 0...
---- Brush_LoadEntity ----
            6 brushes
---- CSGFaces ----
           36 brushfaces
           24 csgfaces
           19 mergedfaces
---- SolidBSP ----
           24 split nodes
            6 solid leafs
           19 empty leafs
            0 water leafs
           27 leaffaces
           27 nodefaces
---- Portalize ----
           19 vis leafs
           19 vis clusters
           48 vis portals
---- FillOutside ----
           18 outleafs
---- MergeAll ----
            6 mergefaces
---- SolidBSP ----
            6 split nodes
            6 solid leafs
            1 empty leafs
            0 water leafs
            6 leaffaces
            6 nodefaces
---- Portalize ----
            1 vis leafs
            1 vis clusters
            0 vis portals
---- Tjunc ----
           12 world edges
           24 edge points
            0 edges added by tjunctions
            0 faces added by tjunctions
---- MakeFaceEdges ----
---- GrowRegions ----
Processing hull 1...
*** WARNING 19: No entities in empty space -- no filling performed (hull 1)
Processing hull 2...
*** WARNING 19: No entities in empty space -- no filling performed (hull 2)
---- WriteBSPFile ----
           23 planes              460
            8 vertexes             96
            6 nodes               144
            9 texinfo             360
            6 faces               120
           30 clipnodes           240
            2 leafs                56
            6 marksurfaces         12
           24 surfedges            96
           13 edges                52
            1 textures           5936
              lightdata             0
              visdata               0
              entdata             297

0.029 seconds elapsed
Peak memory usage: 159268 (155.5k)
